*************Notes***************

* You may use LTspice help.

* Any question mark (?) should be replaced by a word or a numeric value.

* Use nmos_part1_i where i refers to the deliverable you
* are working on.

*---------------------------------*
* Part 1.1
.model nmos_part1_1 NMOS (LEVEL=1 VT0=0.4 KP=183.7u LAMBDA=0)

*---------------------------------*

* Part1.2
* add a line here (same as Part 1.1 except for one more parameter)
* Don't forget to change the model name to nmos_part1_2
.model nmos_part1_2 NMOS (LEVEL=1 VT0=0.4 KP=183.7u LAMBDA=0.1 CJ=0 CJSW=0)

*---------------------------------*

* Part 1.3
*.add a line here (same as Part 1.2 except for one more parameter)
.model nmos_part1_3 NMOS (LEVEL=3 VT0=0.4 KP=183.7u  vmax= 1.5e5 CJ=0 CJSW=0)

*---------------------------------*

* Part 1.6
* add a line here (same as Part 1.3 but you have to add CJ and CJSW. Take care of the units)
.model nmos_part1_6 NMOS (LEVEL=3 VT0=0.4 KP=183.7u CJ=1e-15 CJSW=1e-16)
*---------------------------------*


